# Default configuration file. Do NOT change this file; 
# override it in conf/env instead.
RCLONEDIR="${MODPATH:-/data/adb/modules/rclone}"
RCLONEPROP="$RCLONEDIR/module.prop"

RCLONE_LOG_DIR="${RCLONE_LOG_DIR:-${TMPDIR:-/data/local/tmp}}"
RCLONEWEB_PID="${RCLONE_LOG_DIR}/rclone_web.pid"
RCLONESYNC_PID="${RCLONE_LOG_DIR}/rclone_sync.pid"

RCLONE_CONFIG_DIR="$RCLONEDIR/conf"
RCLONE_CONFIG="${RCLONE_CONFIG_DIR}/rclone.conf"
RCLONESYNC_CONF="$RCLONE_CONFIG_DIR/sync"
RCLONECOPY_CONF="$RCLONE_CONFIG_DIR/copy"
RCLONE_CACHE_DIR="${DOWNLOAD_CACHE:-$TMPDIR}/rclone"

RCLONE_MULTI_THREAD_STREAMS=8
RCLONE_MULTI_THREAD_CHUNK_SIZE=64M
RCLONE_MULTI_THREAD_CUTOFF=64M

RCLONE_ALLOW_OTHER=true
RCLONE_BUFFER_SIZE=60M
RCLONE_DIR_CACHE_TIME=10m
RCLONE_VFS_CACHE_MODE=full
RCLONE_VFS_CACHE_MAX_AGE=36h
RCLONE_VFS_CACHE_MAX_SIZE=32G
RCLONE_VFS_READ_CHUNK_SIZE=4M
RCLONE_VFS_READ_CHUNK_SIZE_LIMIT=512M
RCLONE_VFS_READ_CHUNK_STREAMS=2
RCLONE_VFS_READ_AHEAD=192M
RCLONE_ATTR_TIMEOUT=3s
RCLONE_GID=1015

RCLONE_RC_ADDR=":5572"
RCLONE_RC_WEB_GUI_UPDATE=true
RCLONE_RC_WEB_GUI_NO_OPEN_BROWSER=true
[ -f "${RCLONE_CONFIG_DIR}/htpasswd" ] && RCLONE_RC_HTPASSWD="${RCLONE_CONFIG_DIR}/htpasswd" || RCLONE_RC_NO_AUTH=true

# for more info https://rclone.org/docs/#environment-variables
# override the config in `./conf/env`
[ -f "${RCLONE_CONFIG_DIR}/env" ] && . "${RCLONE_CONFIG_DIR}/env"
